<NUMBER OF ZONES> 38
<TOTAL OD FLOW> 3220.00
<END OF METADATA>

Origin 18
   25 :     100.00;   26 :      33.00;   28 :      41.00;   31 :      91.00;   34 :      71.00;
   36 :      24.00;   38 :      38.00;

Origin 25
   18 :     100.00;   26 :     125.00;   28 :     150.00;   31 :     175.00;   34 :     125.00;
   36 :      61.00;   38 :     100.00;

Origin 26
   18 :      33.00;   25 :     125.00;   28 :      16.00;   31 :      29.00;   34 :      23.00;
   36 :       1.00;   38 :      11.00;

Origin 28
   18 :      41.00;   25 :     150.00;   26 :      16.00;   31 :      55.00;   34 :      41.00;
   36 :      13.00;   38 :      18.00;

Origin 31
   18 :      91.00;   25 :     175.00;   26 :      29.00;   28 :      55.00;   34 :      82.00;
   36 :      38.00;   38 :      84.00;

Origin 34
   18 :      71.00;   25 :     125.00;   26 :      23.00;   28 :      41.00;   31 :      82.00;
   36 :      16.00;   38 :      31.00;

Origin 36
   18 :      24.00;   25 :      61.00;   26 :       1.00;   28 :      13.00;   31 :      38.00;
   34 :      16.00;   38 :      19.00;

Origin 38
   18 :      38.00;   25 :     100.00;   26 :      11.00;   28 :      18.00;   31 :      84.00;
   34 :      31.00;   36 :      19.00;
