<NUMBER OF ZONES> 38
<TOTAL OD FLOW> 8800.00
<END OF METADATA>

Origin 1
    4 :     800.00;

Origin 2
    4 :    1000.00;

Origin 3
    4 :     900.00;

Origin 4
    1 :     800.00;    2 :    1000.00;    3 :     900.00;    5 :     300.00;    6 :     800.00;
    7 :     600.00;

Origin 5
    4 :     300.00;

Origin 6
    4 :     800.00;

Origin 7
    4 :     600.00;
