<NUMBER OF ZONES> 38
<TOTAL OD FLOW> 10700.00
<DISTANCE FACTOR> 2.0
<END OF METADATA>

Origin 1
    2 :    1000.00;    3 :     400.00;    4 :     800.00;    5 :     200.00;    6 :     500.00;
    7 :     400.00;

Origin 2
    1 :    1000.00;    3 :     600.00;    4 :    1000.00;    5 :     400.00;    6 :     800.00;
    7 :     600.00;

Origin 3
    1 :     400.00;    2 :     600.00;    4 :     900.00;    5 :     100.00;    6 :     300.00;
    7 :     400.00;

Origin 4
    1 :     800.00;    2 :    1000.00;    3 :     900.00;    5 :     300.00;    6 :     800.00;
    7 :     600.00;

Origin 5
    1 :     200.00;    2 :     400.00;    3 :     100.00;    4 :     300.00;    6 :     100.00;
    7 :     100.00;

Origin 6
    1 :     500.00;    2 :     800.00;    3 :     300.00;    4 :     800.00;    5 :     100.00;
    7 :     400.00;

Origin 7
    1 :     400.00;    2 :     600.00;    3 :     400.00;    4 :     600.00;    5 :     100.00;
    6 :     400.00;
